45

O      39.55724515      33.75271314      38.40917207 
S      40.85906611      34.05164612      38.96498639 
O      42.08066828      33.95284000      38.19595313 
C      42.32571194      32.73322762      40.89834532 
H      43.19968501      32.99032401      40.30295436 
Cl      45.20041227      29.36338131      46.43043646 
C      41.05184934      33.09086636      40.45377016 
C      42.45668317      32.04677947      42.10437138 
H      43.45084814      31.76806349      42.45397500 
C      41.33623713      31.70625411      42.87422993 
C      40.06720668      32.07018496      42.39744704 
H      39.18097405      31.80058002      42.97364913 
C      39.91665528      32.75758494      41.19816166 
H      38.92751728      33.01994634      40.82523353 
C      41.48361320      30.98558291      44.18381422 
H      42.41118162      30.40352859      44.22479339 
H      40.63985814      30.30766109      44.36544785 
H      41.51361125      31.70368231      45.01623603 
C      43.58355603      33.58567170      46.05760995 
C      44.50879591      33.09126273      45.12712202 
C      44.58735767      30.98663420      46.29469212 
C      43.67416047      31.45779258      47.23763178 
H      43.35738436      30.81675118      48.05804802 
C      43.18004488      32.75463873      47.11100991 
H      42.46723835      33.12401865      47.85020035 
N      40.75043902      35.65259391      39.44466891 
C      41.91357542      36.39938024      39.92718967 
H      42.74053298      36.18343665      39.23786748 
C      41.59554654      37.90036812      39.88819883 
H      41.31036592      38.18979620      38.87024230 
H      42.47497764      38.47941767      40.19408535 
S      41.54380622      35.14894837      44.87226222 
O      41.49789017      35.80019430      42.30624954 
C      42.31697189      35.46623386      43.35107789 
N      43.58095681      35.45930024      43.02499490 
N      43.62739090      35.79899291      41.66869043 
C      42.40412200      35.98540807      41.28539389 
H      39.87281191      35.84000620      39.92875742 
H      40.76971134      38.14771790      40.56964680 
C      43.04236454      34.98075809      45.94353203 
H      43.78224526      35.68390108      45.54521868 
H      42.69364229      35.35046375      46.91564229 
H      44.82329787      33.72815772      44.30050633 
C      45.01169104      31.79751710      45.24114695 
H      45.73147637      31.41638123      44.51869652 
