55

C       8.74281024      13.44863575      23.16378372 
H       8.21599736      13.87647342      22.31102708 
C      10.11074978      13.19356923      23.08694135 
H      10.66156989      13.42447181      22.17529062 
S      10.21984476      11.77007898      29.24516565 
O       9.84042509      12.85260020      30.12674851 
O       9.36376303      10.62762033      28.99958012 
N      10.46415466      12.48990165      27.77028383 
H      10.87854714      13.41964366      27.83814498 
C      10.78160584      11.71087995      26.56899447 
H      10.32214279      10.72501353      26.73204483 
C      10.09912389      12.35237176      25.36230584 
C       8.72448552      12.61600039      25.43519330 
H       8.18799067      12.39839884      26.35887093 
C       8.05098811      13.15651134      24.34266310 
H       6.98099661      13.35257331      24.41152176 
C      10.78568512      12.64534155      24.18069782 
H      11.85534857      12.44991740      24.10691665 
C      11.67094309       6.71025632      26.43329001 
H      11.92121614       5.81182324      26.99721422 
C      10.61726558       6.69117798      25.51596520 
H      10.04340362       5.77799765      25.36028176 
C      10.31077367       7.84372826      24.79244796 
H       9.50273009       7.83332750      24.06143637 
C      11.03704148       9.01628435      24.99640142 
H      10.80034365       9.90295816      24.40974500 
N      13.56211038      13.71711841      26.74414499 
C      12.07051104       9.77255700      29.68626470 
H      11.32170131       9.11119469      29.25464418 
C      13.29606260       9.28321813      30.13860887 
H      13.51605972       8.21908850      30.05537395 
C      14.23360836      10.14988375      30.70242936 
H      15.18882642       9.76240207      31.05576362 
C      13.95141000      11.51436592      30.81173061 
H      14.68251701      12.19195350      31.25161752 
C      12.73005466      12.01524457      30.36397898 
H      12.49305329      13.07382062      30.45871279 
C      11.79679134      11.13595322      29.80757459 
C      12.28663726      11.49056361      26.40928961 
C      13.05277476      12.67860849      26.58351282 
C      12.87960329      10.27851286      26.18676214 
C      12.08815605       9.05331198      25.92805742 
C      12.40830039       7.87434403      26.62667609 
H      13.23691827       7.88608851      27.33359972 
C      14.35112342      10.11150733      26.21211626 
C      15.13749944      10.66707416      27.23317940 
H      14.66261912      11.22272948      28.03817675 
C      16.51865116      10.48684979      27.23962420 
H      17.11239904      10.91724659      28.04585678 
C      17.13806951       9.75669886      26.22416317 
H      18.21939511       9.62060894      26.22885105 
C      16.36505018       9.19427391      25.20554335 
H      16.84111905       8.62196334      24.40960063 
C      14.98254861       9.35857500      25.20596312 
H      14.37993631       8.91047544      24.41607102 
