59

O      20.69398953      17.70752189      21.42892103 
H      21.08459857      16.79838149      23.83235555 
S      26.21442325      15.21537189      19.12803272 
C      23.78836685      15.66972768      18.26494127 
H      23.67796034      14.66984567      17.84058832 
C      24.50050356      15.70500289      19.59871281 
C      23.76782108      14.77769821      20.57748396 
H      23.48246380      13.83083626      20.10429150 
H      24.39676027      14.54903170      21.44588907 
C      22.54852623      15.60209654      20.99826499 
H      21.68713038      15.42568626      20.34068023 
H      22.24106325      15.37395310      22.02949661 
C      27.00483421      14.46436630      20.59961562 
H      28.06069488      14.74988438      20.48992123 
H      26.64281012      14.97326921      21.50027925 
C      26.85917361      12.94919131      20.69335185 
H      25.81159397      12.64743227      20.81757703 
H      27.42529431      12.56380210      21.55499620 
H      27.24021252      12.45754368      19.78916391 
N      23.00123469      17.00621204      20.86644646 
S      22.05273064      18.20673318      21.50284404 
O      28.83430363      18.65526497      22.06841708 
O      28.46470087      17.78198191      24.19102333 
O      23.68584513      18.98687928      17.02539025 
O      22.43322477      19.46205190      20.88721241 
C      23.30750083      16.73110422      17.61265910 
H      22.79749772      16.60713459      16.65582281 
C      23.40692018      18.12534618      18.13652618 
H      22.42801117      18.41914446      18.56220634 
C      24.48744283      18.22264214      19.21448322 
H      24.48162782      19.21211259      19.68229823 
H      25.45118261      18.08639491      18.70308347 
C      24.37963232      17.13232314      20.29424676 
C      25.43401223      17.32425417      21.39578487 
C      26.64795456      17.99133712      21.11375215 
H      26.86888738      18.39895717      20.13216881 
C      27.57656050      18.09314508      22.12812298 
C      27.36039982      17.56570859      23.39883156 
C      26.18882735      16.90581423      23.70600137 
C      25.23558934      16.79999191      22.68003631 
H      24.29612900      16.31248557      22.92327504 
C      29.29067085      18.68192227      23.42956803 
H      29.18172869      19.70549806      23.83389716 
H      30.33298175      18.34187389      23.47132719 
C      23.38185493      20.35137205      17.28282899 
H      22.34628818      20.47081070      17.64622214 
H      23.49630220      20.88246602      16.33086227 
H      24.06252441      20.80427243      18.02408868 
C      22.46648729      18.34312893      23.23526568 
C      23.42658199      19.27507435      23.63694662 
H      23.87542669      19.93508151      22.89751365 
C      21.86290814      17.48560206      24.15982295 
H      25.99920081      16.50021132      24.69737722 
C      23.79735943      19.33571130      24.97843631 
H      24.54548664      20.06025658      25.29871122 
C      23.21980651      18.46688063      25.90687282 
H      23.51631772      18.51450403      26.95456067 
C      22.25127795      17.54693208      25.49831202 
H      21.78492553      16.88360739      26.22651276 
