39

C 33.20164464 46.79185191 50.18556885 
C 31.90678625 47.04171135 49.44968387 
H 33.16103542 45.90165917 50.82706618 
H 31.10515514 47.22125335 50.17799569 
H 31.62527467 46.17512601 48.83892265 
H 31.98247799 47.92138187 48.79872596 
O 36.20324967 42.93942791 46.34966674 
C 35.71301144 43.60797434 48.83995205 
C 36.29829048 42.47832230 44.96360058 
C 35.75143483 41.07090414 44.91956510 
H 37.35223512 42.53408672 44.66008602 
H 35.80475828 40.69312766 43.89013537 
H 34.70346653 41.04146008 45.24231836 
H 36.33304943 40.39848712 45.56208013 
N 34.96150578 42.92618435 49.40648555 
O 37.13051605 44.93414934 45.76644221 
N 36.28611795 47.95473273 46.73547411 
N 39.84446075 45.81182467 47.38632909 
C 36.39325458 46.01612554 48.45841169 
C 37.68907261 45.26044673 48.73129387 
C 36.51892254 44.51464318 48.06145595 
C 36.35462408 47.04199407 47.45191204 
C 38.84801018 45.57778290 47.93648868 
C 36.65883585 44.17433554 46.57922055 
H 35.72666902 43.17527303 44.33602256 
O 35.78932664 46.22305508 50.80681576 
O 34.23985400 46.56496859 49.17680842 
O 37.87836724 43.81945970 50.68396147 
O 38.75633010 45.92338469 50.70198679 
C 35.45485298 46.28543435 49.64663947 
C 38.08875953 44.89448811 50.18039348 
C 39.19414232 45.75472977 52.08634389 
C 39.94416669 47.00639362 52.47733660 
H 33.51097891 47.64791262 50.80010988 
H 39.81890026 44.85302423 52.13947450 
H 38.29673918 45.58993984 52.69795700 
H 40.82099654 47.16041395 51.83624662 
H 40.28985776 46.91425241 53.51530519 
H 39.30001564 47.89164203 52.40804611 
