28

C      36.52340453      39.64067030      25.16923318 
H      35.26698929      39.16392309      27.54264018 
H      35.58678028      39.40313295      24.64317686 
H      37.22526920      40.04823539      24.43209668 
H      36.93134839      38.69183261      25.54299556 
S      35.45461157      43.56307047      29.69558513 
F      32.87369894      43.37506731      29.21352399 
O      35.22786781      42.80790010      30.91466826 
O      36.43248334      44.63614992      29.63603238 
C      35.78081863      42.41143768      28.37520614 
C      36.45871649      42.84715241      27.23538521 
C      36.70255683      41.94237677      26.20507193 
C      36.27461836      40.60974944      26.29257615 
C      35.59808225      40.19952929      27.45209370 
C      35.34726654      41.08850722      28.49288541 
C      33.87888510      44.28073050      29.21121437 
C      33.71109855      45.56853868      28.91334682 
C      32.40686992      46.22329107      28.58152388 
C      32.05481662      47.34657113      29.56928388 
H      36.80342845      43.87823299      27.17148587 
H      37.24173395      42.27510948      25.31716176 
H      34.83442762      40.76804672      29.39816444 
H      34.61500498      46.17877542      28.95139477 
H      32.48027977      46.64598398      27.56557676 
H      31.60481727      45.47408668      28.55456057 
H      31.94113010      46.95278177      30.58742974 
H      32.83734765      48.11712114      29.59378325 
H      31.11252337      47.83163545      29.28320519 
