22

C 3.95256786 17.67855833 24.82877401 
N 5.83308633 17.06726752 26.24671027 
O 5.67172519 15.86569554 26.03797781 
O 6.42572391 17.55678219 27.20798440 
O 1.39183025 17.11715479 23.95636323 
H 0.49937341 17.03067199 23.56956601 
H 3.48109357 16.76824297 25.19037358 
O 5.73406490 21.40292189 22.19542186 
O 1.32490914 18.96605320 22.64721831 
H 3.47593015 20.31202208 22.73999449 
C 3.29846639 18.52275897 23.93073609 
C 3.96025463 19.65908378 23.46356523 
C 5.23563827 19.94738889 23.92816514 
C 5.93991309 19.14680101 24.84778866 
C 5.23034301 18.00640796 25.26765280 
C 1.91891191 18.25577613 23.43173144 
C 7.34826071 19.44093981 25.27327105 
N 5.84928102 21.19261841 23.40121042 
O 6.40519269 21.93259945 24.21256901 
H 7.89005988 19.98945241 24.49679351 
H 7.35413379 20.06277149 26.17821140 
H 7.89296994 18.52117809 25.50648085 
