36

C      43.39421936      43.42963830      44.02551574 
H      42.57385439      44.14634293      43.99438298 
C      43.36898191      42.29977490      43.20418247 
H      42.53235000      42.13292307      42.52629000 
C      44.42674800      41.39080941      43.25088968 
H      44.42447685      40.51488100      42.60269660 
C      45.50087847      41.60349144      44.11166743 
H      46.33053679      40.90020018      44.11276655 
O      46.86597155      44.30521453      46.15124811 
C      46.62112890      42.97650856      45.88756165 
C      45.52755635      42.72661297      44.95793884 
C      44.45983672      43.64381414      44.89331092 
H      44.46963788      44.51887111      45.54056783 
S      47.40023764      40.39263894      46.56555768 
O      47.57257614      39.83354774      47.94524876 
C      47.49472342      42.18240746      46.61263501 
C      48.32996642      43.07199209      47.39430967 
C      49.39651113      42.94574491      48.34275963 
C      49.87508615      41.71798984      48.85871447 
H      49.36477431      40.79285367      48.59031403 
C      50.92709606      41.67623582      49.75281414 
H      51.27433817      40.72362740      50.14825992 
C      51.53532675      42.87563476      50.16700238 
C      51.08274525      44.09713122      49.72254483 
H      51.54465403      45.02030960      50.06984863 
C      49.99988540      44.16605071      48.81062057 
C      47.89754954      44.35433883      47.04625474 
C      48.97735145      40.12335214      45.67179014 
H      49.09939309      39.03684858      45.59306464 
H      48.89520803      40.57148245      44.67409512 
H      49.81287152      40.56468839      46.22526306 
Br      52.99838004      42.79607966      51.38853572 
C      49.51574184      45.43822653      48.38307625 
H      50.00098718      46.33392996      48.77058243 
C      48.45671969      45.55075857      47.51279631 
H      48.06813663      46.51355717      47.18609960 
